<additional xmlns:xsi="http://www.w3.org/2001/XMLSchema-instance" xsi:noNamespaceSchemaLocation="http://sumo.dlr.de/xsd/additional_file.xsd">
    <laneAreaDetector file="e2output.xml" freq="1.00" tl="J2" friendlyPos="x" id="e2det_-E1_0" lane="-E1_0" length="170.70000000000002" pos="0"/>
    <laneAreaDetector file="e2output.xml" freq="1.00" tl="J2" friendlyPos="x" id="e2det_-E1_1" lane="-E1_1" length="170.70000000000002" pos="0"/>
    <laneAreaDetector file="e2output.xml" freq="1.00" tl="J2" friendlyPos="x" id="e2det_-E1_2" lane="-E1_2" length="170.70000000000002" pos="0"/>
    <laneAreaDetector file="e2output.xml" freq="1.00" tl="J2" friendlyPos="x" id="e2det_-E6_0" lane="-E6_0" length="185.3" pos="0"/>
    <laneAreaDetector file="e2output.xml" freq="1.00" tl="J2" friendlyPos="x" id="e2det_-E6_1" lane="-E6_1" length="185.3" pos="0"/>
    <laneAreaDetector file="e2output.xml" freq="1.00" tl="J2" friendlyPos="x" id="e2det_-E6_2" lane="-E6_2" length="185.3" pos="0"/>
    <laneAreaDetector file="e2output.xml" freq="1.00" tl="J2" friendlyPos="x" id="e2det_-E9_0" lane="-E9_0" length="170.70000000000002" pos="0"/>
    <laneAreaDetector file="e2output.xml" freq="1.00" tl="J2" friendlyPos="x" id="e2det_-E9_1" lane="-E9_1" length="170.70000000000002" pos="0"/>
    <laneAreaDetector file="e2output.xml" freq="1.00" tl="J2" friendlyPos="x" id="e2det_-E9_2" lane="-E9_2" length="170.70000000000002" pos="0"/>
    <laneAreaDetector file="e2output.xml" freq="1.00" tl="J2" friendlyPos="x" id="e2det_E3_0" lane="E3_0" length="170.70000000000002" pos="0"/>
    <laneAreaDetector file="e2output.xml" freq="1.00" tl="J2" friendlyPos="x" id="e2det_E3_1" lane="E3_1" length="170.70000000000002" pos="0"/>
    <laneAreaDetector file="e2output.xml" freq="1.00" tl="J2" friendlyPos="x" id="e2det_E3_2" lane="E3_2" length="170.70000000000002" pos="0"/>
    <laneAreaDetector file="e2output.xml" freq="1.00" tl="J3" friendlyPos="x" id="e2det_-E10_0" lane="-E10_0" length="170.70000000000002" pos="0"/>
    <laneAreaDetector file="e2output.xml" freq="1.00" tl="J3" friendlyPos="x" id="e2det_-E10_1" lane="-E10_1" length="170.70000000000002" pos="0"/>
    <laneAreaDetector file="e2output.xml" freq="1.00" tl="J3" friendlyPos="x" id="e2det_-E10_2" lane="-E10_2" length="170.70000000000002" pos="0"/>
    <laneAreaDetector file="e2output.xml" freq="1.00" tl="J3" friendlyPos="x" id="e2det_-E2_0" lane="-E2_0" length="185.3" pos="0"/>
    <laneAreaDetector file="e2output.xml" freq="1.00" tl="J3" friendlyPos="x" id="e2det_-E2_1" lane="-E2_1" length="185.3" pos="0"/>
    <laneAreaDetector file="e2output.xml" freq="1.00" tl="J3" friendlyPos="x" id="e2det_-E2_2" lane="-E2_2" length="185.3" pos="0"/>
    <laneAreaDetector file="e2output.xml" freq="1.00" tl="J3" friendlyPos="x" id="e2det_-E7_0" lane="-E7_0" length="185.3" pos="0"/>
    <laneAreaDetector file="e2output.xml" freq="1.00" tl="J3" friendlyPos="x" id="e2det_-E7_1" lane="-E7_1" length="185.3" pos="0"/>
    <laneAreaDetector file="e2output.xml" freq="1.00" tl="J3" friendlyPos="x" id="e2det_-E7_2" lane="-E7_2" length="185.3" pos="0"/>
    <laneAreaDetector file="e2output.xml" freq="1.00" tl="J3" friendlyPos="x" id="e2det_E1_0" lane="E1_0" length="170.70000000000002" pos="0"/>
    <laneAreaDetector file="e2output.xml" freq="1.00" tl="J3" friendlyPos="x" id="e2det_E1_1" lane="E1_1" length="170.70000000000002" pos="0"/>
    <laneAreaDetector file="e2output.xml" freq="1.00" tl="J3" friendlyPos="x" id="e2det_E1_2" lane="E1_2" length="170.70000000000002" pos="0"/>
    <laneAreaDetector file="e2output.xml" freq="1.00" tl="J4" friendlyPos="x" id="e2det_-E11_0" lane="-E11_0" length="185.3" pos="0"/>
    <laneAreaDetector file="e2output.xml" freq="1.00" tl="J4" friendlyPos="x" id="e2det_-E11_1" lane="-E11_1" length="185.3" pos="0"/>
    <laneAreaDetector file="e2output.xml" freq="1.00" tl="J4" friendlyPos="x" id="e2det_-E11_2" lane="-E11_2" length="185.3" pos="0"/>
    <laneAreaDetector file="e2output.xml" freq="1.00" tl="J4" friendlyPos="x" id="e2det_-E12_0" lane="-E12_0" length="170.70000000000002" pos="0"/>
    <laneAreaDetector file="e2output.xml" freq="1.00" tl="J4" friendlyPos="x" id="e2det_-E12_1" lane="-E12_1" length="170.70000000000002" pos="0"/>
    <laneAreaDetector file="e2output.xml" freq="1.00" tl="J4" friendlyPos="x" id="e2det_-E12_2" lane="-E12_2" length="170.70000000000002" pos="0"/>
    <laneAreaDetector file="e2output.xml" freq="1.00" tl="J4" friendlyPos="x" id="e2det_-E15_0" lane="-E15_0" length="170.70000000000002" pos="0"/>
    <laneAreaDetector file="e2output.xml" freq="1.00" tl="J4" friendlyPos="x" id="e2det_-E15_1" lane="-E15_1" length="170.70000000000002" pos="0"/>
    <laneAreaDetector file="e2output.xml" freq="1.00" tl="J4" friendlyPos="x" id="e2det_-E15_2" lane="-E15_2" length="170.70000000000002" pos="0"/>
    <laneAreaDetector file="e2output.xml" freq="1.00" tl="J4" friendlyPos="x" id="e2det_E8_0" lane="E8_0" length="170.70000000000002" pos="0"/>
    <laneAreaDetector file="e2output.xml" freq="1.00" tl="J4" friendlyPos="x" id="e2det_E8_1" lane="E8_1" length="170.70000000000002" pos="0"/>
    <laneAreaDetector file="e2output.xml" freq="1.00" tl="J4" friendlyPos="x" id="e2det_E8_2" lane="E8_2" length="170.70000000000002" pos="0"/>
    <laneAreaDetector file="e2output.xml" freq="1.00" tl="J5" friendlyPos="x" id="e2det_-E13_0" lane="-E13_0" length="170.70000000000002" pos="0"/>
    <laneAreaDetector file="e2output.xml" freq="1.00" tl="J5" friendlyPos="x" id="e2det_-E13_1" lane="-E13_1" length="170.70000000000002" pos="0"/>
    <laneAreaDetector file="e2output.xml" freq="1.00" tl="J5" friendlyPos="x" id="e2det_-E13_2" lane="-E13_2" length="170.70000000000002" pos="0"/>
    <laneAreaDetector file="e2output.xml" freq="1.00" tl="J5" friendlyPos="x" id="e2det_-E16_0" lane="-E16_0" length="170.70000000000002" pos="0"/>
    <laneAreaDetector file="e2output.xml" freq="1.00" tl="J5" friendlyPos="x" id="e2det_-E16_1" lane="-E16_1" length="170.70000000000002" pos="0"/>
    <laneAreaDetector file="e2output.xml" freq="1.00" tl="J5" friendlyPos="x" id="e2det_-E16_2" lane="-E16_2" length="170.70000000000002" pos="0"/>
    <laneAreaDetector file="e2output.xml" freq="1.00" tl="J5" friendlyPos="x" id="e2det_E12_0" lane="E12_0" length="170.70000000000002" pos="0"/>
    <laneAreaDetector file="e2output.xml" freq="1.00" tl="J5" friendlyPos="x" id="e2det_E12_1" lane="E12_1" length="170.70000000000002" pos="0"/>
    <laneAreaDetector file="e2output.xml" freq="1.00" tl="J5" friendlyPos="x" id="e2det_E12_2" lane="E12_2" length="170.70000000000002" pos="0"/>
    <laneAreaDetector file="e2output.xml" freq="1.00" tl="J5" friendlyPos="x" id="e2det_E9_0" lane="E9_0" length="170.70000000000002" pos="0"/>
    <laneAreaDetector file="e2output.xml" freq="1.00" tl="J5" friendlyPos="x" id="e2det_E9_1" lane="E9_1" length="170.70000000000002" pos="0"/>
    <laneAreaDetector file="e2output.xml" freq="1.00" tl="J5" friendlyPos="x" id="e2det_E9_2" lane="E9_2" length="170.70000000000002" pos="0"/>
    <laneAreaDetector file="e2output.xml" freq="1.00" tl="J6" friendlyPos="x" id="e2det_-E14_0" lane="-E14_0" length="185.3" pos="0"/>
    <laneAreaDetector file="e2output.xml" freq="1.00" tl="J6" friendlyPos="x" id="e2det_-E14_1" lane="-E14_1" length="185.3" pos="0"/>
    <laneAreaDetector file="e2output.xml" freq="1.00" tl="J6" friendlyPos="x" id="e2det_-E14_2" lane="-E14_2" length="185.3" pos="0"/>
    <laneAreaDetector file="e2output.xml" freq="1.00" tl="J6" friendlyPos="x" id="e2det_-E17_0" lane="-E17_0" length="170.70000000000002" pos="0"/>
    <laneAreaDetector file="e2output.xml" freq="1.00" tl="J6" friendlyPos="x" id="e2det_-E17_1" lane="-E17_1" length="170.70000000000002" pos="0"/>
    <laneAreaDetector file="e2output.xml" freq="1.00" tl="J6" friendlyPos="x" id="e2det_-E17_2" lane="-E17_2" length="170.70000000000002" pos="0"/>
    <laneAreaDetector file="e2output.xml" freq="1.00" tl="J6" friendlyPos="x" id="e2det_E10_0" lane="E10_0" length="170.70000000000002" pos="0"/>
    <laneAreaDetector file="e2output.xml" freq="1.00" tl="J6" friendlyPos="x" id="e2det_E10_1" lane="E10_1" length="170.70000000000002" pos="0"/>
    <laneAreaDetector file="e2output.xml" freq="1.00" tl="J6" friendlyPos="x" id="e2det_E10_2" lane="E10_2" length="170.70000000000002" pos="0"/>
    <laneAreaDetector file="e2output.xml" freq="1.00" tl="J6" friendlyPos="x" id="e2det_E13_0" lane="E13_0" length="170.70000000000002" pos="0"/>
    <laneAreaDetector file="e2output.xml" freq="1.00" tl="J6" friendlyPos="x" id="e2det_E13_1" lane="E13_1" length="170.70000000000002" pos="0"/>
    <laneAreaDetector file="e2output.xml" freq="1.00" tl="J6" friendlyPos="x" id="e2det_E13_2" lane="E13_2" length="170.70000000000002" pos="0"/>
    <laneAreaDetector file="e2output.xml" freq="1.00" tl="J7" friendlyPos="x" id="e2det_-E18_0" lane="-E18_0" length="185.3" pos="0"/>
    <laneAreaDetector file="e2output.xml" freq="1.00" tl="J7" friendlyPos="x" id="e2det_-E18_1" lane="-E18_1" length="185.3" pos="0"/>
    <laneAreaDetector file="e2output.xml" freq="1.00" tl="J7" friendlyPos="x" id="e2det_-E18_2" lane="-E18_2" length="185.3" pos="0"/>
    <laneAreaDetector file="e2output.xml" freq="1.00" tl="J7" friendlyPos="x" id="e2det_-E19_0" lane="-E19_0" length="185.3" pos="0"/>
    <laneAreaDetector file="e2output.xml" freq="1.00" tl="J7" friendlyPos="x" id="e2det_-E19_1" lane="-E19_1" length="185.3" pos="0"/>
    <laneAreaDetector file="e2output.xml" freq="1.00" tl="J7" friendlyPos="x" id="e2det_-E19_2" lane="-E19_2" length="185.3" pos="0"/>
    <laneAreaDetector file="e2output.xml" freq="1.00" tl="J7" friendlyPos="x" id="e2det_-E20_0" lane="-E20_0" length="170.70000000000002" pos="0"/>
    <laneAreaDetector file="e2output.xml" freq="1.00" tl="J7" friendlyPos="x" id="e2det_-E20_1" lane="-E20_1" length="170.70000000000002" pos="0"/>
    <laneAreaDetector file="e2output.xml" freq="1.00" tl="J7" friendlyPos="x" id="e2det_-E20_2" lane="-E20_2" length="170.70000000000002" pos="0"/>
    <laneAreaDetector file="e2output.xml" freq="1.00" tl="J7" friendlyPos="x" id="e2det_E15_0" lane="E15_0" length="170.70000000000002" pos="0"/>
    <laneAreaDetector file="e2output.xml" freq="1.00" tl="J7" friendlyPos="x" id="e2det_E15_1" lane="E15_1" length="170.70000000000002" pos="0"/>
    <laneAreaDetector file="e2output.xml" freq="1.00" tl="J7" friendlyPos="x" id="e2det_E15_2" lane="E15_2" length="170.70000000000002" pos="0"/>
    <laneAreaDetector file="e2output.xml" freq="1.00" tl="J8" friendlyPos="x" id="e2det_-E21_0" lane="-E21_0" length="185.3" pos="0"/>
    <laneAreaDetector file="e2output.xml" freq="1.00" tl="J8" friendlyPos="x" id="e2det_-E21_1" lane="-E21_1" length="185.3" pos="0"/>
    <laneAreaDetector file="e2output.xml" freq="1.00" tl="J8" friendlyPos="x" id="e2det_-E21_2" lane="-E21_2" length="185.3" pos="0"/>
    <laneAreaDetector file="e2output.xml" freq="1.00" tl="J8" friendlyPos="x" id="e2det_-E22_0" lane="-E22_0" length="170.70000000000002" pos="0"/>
    <laneAreaDetector file="e2output.xml" freq="1.00" tl="J8" friendlyPos="x" id="e2det_-E22_1" lane="-E22_1" length="170.70000000000002" pos="0"/>
    <laneAreaDetector file="e2output.xml" freq="1.00" tl="J8" friendlyPos="x" id="e2det_-E22_2" lane="-E22_2" length="170.70000000000002" pos="0"/>
    <laneAreaDetector file="e2output.xml" freq="1.00" tl="J8" friendlyPos="x" id="e2det_E16_0" lane="E16_0" length="170.70000000000002" pos="0"/>
    <laneAreaDetector file="e2output.xml" freq="1.00" tl="J8" friendlyPos="x" id="e2det_E16_1" lane="E16_1" length="170.70000000000002" pos="0"/>
    <laneAreaDetector file="e2output.xml" freq="1.00" tl="J8" friendlyPos="x" id="e2det_E16_2" lane="E16_2" length="170.70000000000002" pos="0"/>
    <laneAreaDetector file="e2output.xml" freq="1.00" tl="J8" friendlyPos="x" id="e2det_E20_0" lane="E20_0" length="170.70000000000002" pos="0"/>
    <laneAreaDetector file="e2output.xml" freq="1.00" tl="J8" friendlyPos="x" id="e2det_E20_1" lane="E20_1" length="170.70000000000002" pos="0"/>
    <laneAreaDetector file="e2output.xml" freq="1.00" tl="J8" friendlyPos="x" id="e2det_E20_2" lane="E20_2" length="170.70000000000002" pos="0"/>
    <laneAreaDetector file="e2output.xml" freq="1.00" tl="J9" friendlyPos="x" id="e2det_-E23_0" lane="-E23_0" length="185.3" pos="0"/>
    <laneAreaDetector file="e2output.xml" freq="1.00" tl="J9" friendlyPos="x" id="e2det_-E23_1" lane="-E23_1" length="185.3" pos="0"/>
    <laneAreaDetector file="e2output.xml" freq="1.00" tl="J9" friendlyPos="x" id="e2det_-E23_2" lane="-E23_2" length="185.3" pos="0"/>
    <laneAreaDetector file="e2output.xml" freq="1.00" tl="J9" friendlyPos="x" id="e2det_-E24_0" lane="-E24_0" length="185.3" pos="0"/>
    <laneAreaDetector file="e2output.xml" freq="1.00" tl="J9" friendlyPos="x" id="e2det_-E24_1" lane="-E24_1" length="185.3" pos="0"/>
    <laneAreaDetector file="e2output.xml" freq="1.00" tl="J9" friendlyPos="x" id="e2det_-E24_2" lane="-E24_2" length="185.3" pos="0"/>
    <laneAreaDetector file="e2output.xml" freq="1.00" tl="J9" friendlyPos="x" id="e2det_E17_0" lane="E17_0" length="170.70000000000002" pos="0"/>
    <laneAreaDetector file="e2output.xml" freq="1.00" tl="J9" friendlyPos="x" id="e2det_E17_1" lane="E17_1" length="170.70000000000002" pos="0"/>
    <laneAreaDetector file="e2output.xml" freq="1.00" tl="J9" friendlyPos="x" id="e2det_E17_2" lane="E17_2" length="170.70000000000002" pos="0"/>
    <laneAreaDetector file="e2output.xml" freq="1.00" tl="J9" friendlyPos="x" id="e2det_E22_0" lane="E22_0" length="170.70000000000002" pos="0"/>
    <laneAreaDetector file="e2output.xml" freq="1.00" tl="J9" friendlyPos="x" id="e2det_E22_1" lane="E22_1" length="170.70000000000002" pos="0"/>
    <laneAreaDetector file="e2output.xml" freq="1.00" tl="J9" friendlyPos="x" id="e2det_E22_2" lane="E22_2" length="170.70000000000002" pos="0"/>
    <laneAreaDetector file="e2output.xml" freq="1.00" tl="J1" friendlyPos="x" id="e2det_-E3_0" lane="-E3_0" length="170.70000000000002" pos="0"/>
    <laneAreaDetector file="e2output.xml" freq="1.00" tl="J1" friendlyPos="x" id="e2det_-E3_1" lane="-E3_1" length="170.70000000000002" pos="0"/>
    <laneAreaDetector file="e2output.xml" freq="1.00" tl="J1" friendlyPos="x" id="e2det_-E3_2" lane="-E3_2" length="170.70000000000002" pos="0"/>
    <laneAreaDetector file="e2output.xml" freq="1.00" tl="J1" friendlyPos="x" id="e2det_-E5_0" lane="-E5_0" length="185.3" pos="0"/>
    <laneAreaDetector file="e2output.xml" freq="1.00" tl="J1" friendlyPos="x" id="e2det_-E5_1" lane="-E5_1" length="185.3" pos="0"/>
    <laneAreaDetector file="e2output.xml" freq="1.00" tl="J1" friendlyPos="x" id="e2det_-E5_2" lane="-E5_2" length="185.3" pos="0"/>
    <laneAreaDetector file="e2output.xml" freq="1.00" tl="J1" friendlyPos="x" id="e2det_-E8_0" lane="-E8_0" length="170.70000000000002" pos="0"/>
    <laneAreaDetector file="e2output.xml" freq="1.00" tl="J1" friendlyPos="x" id="e2det_-E8_1" lane="-E8_1" length="170.70000000000002" pos="0"/>
    <laneAreaDetector file="e2output.xml" freq="1.00" tl="J1" friendlyPos="x" id="e2det_-E8_2" lane="-E8_2" length="170.70000000000002" pos="0"/>
    <laneAreaDetector file="e2output.xml" freq="1.00" tl="J1" friendlyPos="x" id="e2det_E4_0" lane="E4_0" length="185.3" pos="0"/>
    <laneAreaDetector file="e2output.xml" freq="1.00" tl="J1" friendlyPos="x" id="e2det_E4_1" lane="E4_1" length="185.3" pos="0"/>
    <laneAreaDetector file="e2output.xml" freq="1.00" tl="J1" friendlyPos="x" id="e2det_E4_2" lane="E4_2" length="185.3" pos="0"/>
</additional>
