<?xml version="1.0" encoding="UTF-8"?>

<!-- generated on 2022-04-11 00:20:39 by Eclipse SUMO duarouter Version 1.12.0
<configuration xmlns:xsi="http://www.w3.org/2001/XMLSchema-instance" xsi:noNamespaceSchemaLocation="http://sumo.dlr.de/xsd/duarouterConfiguration.xsd">

    <input>
        <net-file value="hello2.net.xml"/>
        <route-files value="trips.trips.xml"/>
    </input>

    <output>
        <output-file value="hello.rou.xml"/>
        <alternatives-output value="hello.rou.alt.xml"/>
    </output>

</configuration>
-->

<routes xmlns:xsi="http://www.w3.org/2001/XMLSchema-instance" xsi:noNamespaceSchemaLocation="http://sumo.dlr.de/xsd/routes_file.xsd">
	<vType id="private" vClass="private" width="1.80" color="red" latAlignment="nice" minGapLat="0.40"/>
    <vehicle id="0" type="private" depart="0.00">
        <route edges="E1 E10 E17 -E22 -E16 E13 -E10 -E1"/>
    </vehicle>
    <vehicle id="1" type="private" depart="1.00">
        <route edges="-E18 -E15 E12 E13 E17 -E22"/>
    </vehicle>
    <vehicle id="2" type="private" depart="2.00">
        <route edges="E13 -E10 E2"/>
    </vehicle>
    <vehicle id="3" type="private" depart="3.00">
        <route edges="E3 E1 E10 -E13"/>
    </vehicle>
    <vehicle id="4" type="private" depart="4.00">
        <route edges="-E23 -E17 -E10"/>
    </vehicle>
    <vehicle id="5" type="private" depart="5.00">
        <route edges="-E16 E13 E14"/>
    </vehicle>
    <vehicle id="6" type="private" depart="6.00">
        <route edges="-E1 E9 E16 -E20"/>
    </vehicle>
    <vehicle id="7" type="private" depart="7.00">
        <route edges="E1 E10 -E13 -E12 E15"/>
    </vehicle>
    <vehicle id="8" type="private" depart="8.00">
        <route edges="-E16 E13 E17"/>
    </vehicle>
    <vehicle id="9" type="private" depart="9.00">
        <route edges="E17 -E22 -E16 E13 -E10 -E1"/>
    </vehicle>
    <vehicle id="10" type="private" depart="10.00">
        <route edges="E17 -E22 -E16 -E12 E15 E20"/>
    </vehicle>
    <vehicle id="11" type="private" depart="11.00">
        <route edges="-E20 -E15 E12 E13 E17 -E22 -E16"/>
    </vehicle>
    <vehicle id="12" type="private" depart="12.00">
        <route edges="E8 E12 -E9"/>
    </vehicle>
    <vehicle id="13" type="private" depart="13.00">
        <route edges="-E12 -E8 E3 E1 E10 -E13"/>
    </vehicle>
    <vehicle id="14" type="private" depart="14.00">
        <route edges="E20 -E16 E13 E17"/>
    </vehicle>
    <vehicle id="15" type="private" depart="15.00">
        <route edges="E17 -E22 E21"/>
    </vehicle>
    <vehicle id="16" type="private" depart="16.00">
        <route edges="-E6 E9"/>
    </vehicle>
    <vehicle id="17" type="private" depart="17.00">
        <route edges="-E21 -E16 -E12 E15"/>
    </vehicle>
    <vehicle id="18" type="private" depart="18.00">
        <route edges="E17 -E22 -E20 E18"/>
    </vehicle>
    <vehicle id="19" type="private" depart="19.00">
        <route edges="E22 -E17 -E13 E16"/>
    </vehicle>
    <vehicle id="20" type="private" depart="20.00">
        <route edges="E12 E13 -E10"/>
    </vehicle>
    <vehicle id="21" type="private" depart="21.00">
        <route edges="-E17 -E13 -E12 -E8 -E4"/>
    </vehicle>
    <vehicle id="22" type="private" depart="22.00">
        <route edges="-E11 E12 E13 E17 -E22"/>
    </vehicle>
    <vehicle id="23" type="private" depart="23.00">
        <route edges="-E12 -E8 -E4"/>
    </vehicle>
    <vehicle id="24" type="private" depart="24.00">
        <route edges="-E9 E1"/>
    </vehicle>
    <vehicle id="25" type="private" depart="25.00">
        <route edges="-E21 -E20"/>
    </vehicle>
    <vehicle id="26" type="private" depart="26.00">
        <route edges="-E18 -E15 E12 -E9 E1 E7"/>
    </vehicle>
    <vehicle id="27" type="private" depart="27.00">
        <route edges="E1 E10 E17"/>
    </vehicle>
    <vehicle id="28" type="private" depart="28.00">
        <route edges="-E15 E12 E16 E21"/>
    </vehicle>
    <vehicle id="29" type="private" depart="29.00">
        <route edges="-E14 -E13 -E9 E1"/>
    </vehicle>
    <vehicle id="30" type="private" depart="30.00">
        <route edges="E9 E16 -E20 E19"/>
    </vehicle>
    <vehicle id="31" type="private" depart="31.00">
        <route edges="-E7 E2"/>
    </vehicle>
    <vehicle id="32" type="private" depart="32.00">
        <route edges="E20 E22"/>
    </vehicle>
    <vehicle id="33" type="private" depart="33.00">
        <route edges="-E17 -E10"/>
    </vehicle>
    <vehicle id="34" type="private" depart="34.00">
        <route edges="-E2 -E1 -E3"/>
    </vehicle>
    <vehicle id="35" type="private" depart="35.00">
        <route edges="-E16 -E9 E1 E7"/>
    </vehicle>
    <vehicle id="36" type="private" depart="36.00">
        <route edges="E22 -E17 -E13 -E12 -E8"/>
    </vehicle>
    <vehicle id="37" type="private" depart="37.00">
        <route edges="E1 E10"/>
    </vehicle>
    <vehicle id="38" type="private" depart="38.00">
        <route edges="E3 E9 E16 -E20 -E15 E12"/>
    </vehicle>
    <vehicle id="39" type="private" depart="39.00">
        <route edges="-E18 -E15 E12 E13 E17 -E22"/>
    </vehicle>
    <vehicle id="40" type="private" depart="40.00">
        <route edges="-E7 -E1 -E3"/>
    </vehicle>
    <vehicle id="41" type="private" depart="41.00">
        <route edges="-E8 E3 E6"/>
    </vehicle>
    <vehicle id="42" type="private" depart="42.00">
        <route edges="-E22 -E20"/>
    </vehicle>
    <vehicle id="43" type="private" depart="43.00">
        <route edges="E9 E13 E14"/>
    </vehicle>
    <vehicle id="44" type="private" depart="44.00">
        <route edges="-E12 -E8 E3 E9 E13 -E10"/>
    </vehicle>
    <vehicle id="45" type="private" depart="45.00">
        <route edges="-E12 E15 E18"/>
    </vehicle>
    <vehicle id="46" type="private" depart="46.00">
        <route edges="E16 -E20 -E15 E11"/>
    </vehicle>
    <vehicle id="47" type="private" depart="47.00">
        <route edges="-E11 -E8 E3 E1"/>
    </vehicle>
    <vehicle id="48" type="private" depart="48.00">
        <route edges="E9 -E12 E15"/>
    </vehicle>
    <vehicle id="49" type="private" depart="49.00">
        <route edges="E8 E12 E16 -E20 -E15 -E8 E3"/>
    </vehicle>
    <vehicle id="50" type="private" depart="50.00">
        <route edges="-E1 E9 -E12 E15 E20"/>
    </vehicle>
    <vehicle id="51" type="private" depart="51.00">
        <route edges="E10 -E13 -E12 E15"/>
    </vehicle>
    <vehicle id="52" type="private" depart="52.00">
        <route edges="-E18 E19"/>
    </vehicle>
    <vehicle id="53" type="private" depart="53.00">
        <route edges="-E13 -E12 E11"/>
    </vehicle>
    <vehicle id="54" type="private" depart="54.00">
        <route edges="-E24 -E17 -E13 -E9 -E3 E8"/>
    </vehicle>
    <vehicle id="55" type="private" depart="55.00">
        <route edges="E22 -E17 -E13 -E9 -E3"/>
    </vehicle>
    <vehicle id="56" type="private" depart="56.00">
        <route edges="-E5 E3 E9 E16 E22 -E17"/>
    </vehicle>
    <vehicle id="57" type="private" depart="57.00">
        <route edges="E3 E9 -E12 -E8 E5"/>
    </vehicle>
    <vehicle id="58" type="private" depart="58.00">
        <route edges="-E19 -E15 E12 E16 -E20 E19"/>
    </vehicle>
    <vehicle id="59" type="private" depart="59.00">
        <route edges="-E8 E3 E9 E13 E17 -E22 -E16"/>
    </vehicle>
    <vehicle id="60" type="private" depart="60.00">
        <route edges="E15"/>
    </vehicle>
    <vehicle id="61" type="private" depart="61.00">
        <route edges="E16 E22 -E17 -E13 -E12 E15"/>
    </vehicle>
    <vehicle id="62" type="private" depart="62.00">
        <route edges="-E1 E9 -E12 -E8"/>
    </vehicle>
    <vehicle id="63" type="private" depart="63.00">
        <route edges="-E1 E9 E13 -E10 E7"/>
    </vehicle>
    <vehicle id="64" type="private" depart="64.00">
        <route edges="E22 E24"/>
    </vehicle>
    <vehicle id="65" type="private" depart="65.00">
        <route edges="-E2 E10 -E13 -E12"/>
    </vehicle>
    <vehicle id="66" type="private" depart="66.00">
        <route edges="E22 -E17 -E13 -E9 -E3 E8"/>
    </vehicle>
    <vehicle id="67" type="private" depart="67.00">
        <route edges="-E12 -E8 E3 E9 E13"/>
    </vehicle>
    <vehicle id="68" type="private" depart="68.00">
        <route edges="-E11 E15 E20 E22"/>
    </vehicle>
    <vehicle id="69" type="private" depart="69.00">
        <route edges="E15 E20 -E16 E13 E17 -E22 -E20 -E15"/>
    </vehicle>
    <vehicle id="70" type="private" depart="70.00">
        <route edges="-E3 E8 E15"/>
    </vehicle>
    <vehicle id="71" type="private" depart="71.00">
        <route edges="-E18 -E15 -E8 E5"/>
    </vehicle>
    <vehicle id="72" type="private" depart="72.00">
        <route edges="-E23 -E22 -E20"/>
    </vehicle>
    <vehicle id="73" type="private" depart="73.00">
        <route edges="-E6 E9 E16 E21"/>
    </vehicle>
    <vehicle id="74" type="private" depart="74.00">
        <route edges="-E16 -E12 -E8"/>
    </vehicle>
    <vehicle id="75" type="private" depart="75.00">
        <route edges="E9 E16 -E20 E19"/>
    </vehicle>
    <vehicle id="76" type="private" depart="76.00">
        <route edges="-E23 -E17 E14"/>
    </vehicle>
    <vehicle id="77" type="private" depart="77.00">
        <route edges="-E13 -E9 E1 E10 E17 -E22"/>
    </vehicle>
    <vehicle id="78" type="private" depart="78.00">
        <route edges="-E20 -E15 E12 E13 E17"/>
    </vehicle>
    <vehicle id="79" type="private" depart="79.00">
        <route edges="-E17 -E13 E16 -E20"/>
    </vehicle>
    <vehicle id="80" type="private" depart="80.00">
        <route edges="-E11 E15 E18"/>
    </vehicle>
    <vehicle id="81" type="private" depart="81.00">
        <route edges="-E17 -E13 -E9 E6"/>
    </vehicle>
    <vehicle id="82" type="private" depart="82.00">
        <route edges="E20 -E16 -E12"/>
    </vehicle>
    <vehicle id="83" type="private" depart="83.00">
        <route edges="-E17 -E10 E2"/>
    </vehicle>
    <vehicle id="84" type="private" depart="84.00">
        <route edges="-E16 E13 E17 -E22 -E20 -E15"/>
    </vehicle>
    <vehicle id="85" type="private" depart="85.00">
        <route edges="E4 E8 E12 E16"/>
    </vehicle>
    <vehicle id="86" type="private" depart="86.00">
        <route edges="-E3 E8 E12 E16 E22 E23"/>
    </vehicle>
    <vehicle id="87" type="private" depart="87.00">
        <route edges="E17 -E22 -E20 -E15 E12 E16 E22 -E17"/>
    </vehicle>
    <vehicle id="88" type="private" depart="88.00">
        <route edges="-E12 E11"/>
    </vehicle>
    <vehicle id="89" type="private" depart="89.00">
        <route edges="-E23 -E22 -E20 -E15 E12"/>
    </vehicle>
    <vehicle id="90" type="private" depart="90.00">
        <route edges="E13 -E10 E2"/>
    </vehicle>
    <vehicle id="91" type="private" depart="91.00">
        <route edges="E9 E16 E22 -E17 -E13"/>
    </vehicle>
    <vehicle id="92" type="private" depart="92.00">
        <route edges="-E22 -E16 -E9"/>
    </vehicle>
    <vehicle id="93" type="private" depart="93.00">
        <route edges="E22 -E17 -E13 -E9 E1 E10 E17 -E22"/>
    </vehicle>
    <vehicle id="94" type="private" depart="94.00">
        <route edges="-E15 E12"/>
    </vehicle>
    <vehicle id="95" type="private" depart="95.00">
        <route edges="-E23 -E22 -E16 -E12 -E8 -E4"/>
    </vehicle>
    <vehicle id="96" type="private" depart="96.00">
        <route edges="-E17 -E10 E7"/>
    </vehicle>
    <vehicle id="97" type="private" depart="97.00">
        <route edges="-E23 -E22 -E16 -E12 -E8 E5"/>
    </vehicle>
    <vehicle id="98" type="private" depart="98.00">
        <route edges="-E6 E9 E13 -E10"/>
    </vehicle>
    <vehicle id="99" type="private" depart="99.00">
        <route edges="E9 -E12 -E8 E3"/>
    </vehicle>
    <vehicle id="100" type="private" depart="100.00">
        <route edges="E8 E12 -E9 E1 E7"/>
    </vehicle>
    <vehicle id="101" type="private" depart="101.00">
        <route edges="E20 -E16"/>
    </vehicle>
    <vehicle id="102" type="private" depart="102.00">
        <route edges="-E3 E8 E12 E16 -E20"/>
    </vehicle>
    <vehicle id="103" type="private" depart="103.00">
        <route edges="-E22 -E16 -E12"/>
    </vehicle>
    <vehicle id="104" type="private" depart="104.00">
        <route edges="-E21 -E20 -E15 -E8 E3 E9"/>
    </vehicle>
    <vehicle id="105" type="private" depart="105.00">
        <route edges="-E18 E20 E22 E23"/>
    </vehicle>
    <vehicle id="106" type="private" depart="106.00">
        <route edges="-E24 -E17 -E13 -E12 E11"/>
    </vehicle>
    <vehicle id="107" type="private" depart="107.00">
        <route edges="E8 E12 E13 -E10 -E1 E9"/>
    </vehicle>
    <vehicle id="108" type="private" depart="108.00">
        <route edges="-E7 -E1 E9 -E12 E15 E20"/>
    </vehicle>
    <vehicle id="109" type="private" depart="109.00">
        <route edges="-E14 -E10 -E1 -E3 -E4"/>
    </vehicle>
    <vehicle id="110" type="private" depart="110.00">
        <route edges="E8 E12 E16"/>
    </vehicle>
    <vehicle id="111" type="private" depart="111.00">
        <route edges="-E6 E9 E16 E21"/>
    </vehicle>
    <vehicle id="112" type="private" depart="112.00">
        <route edges="-E11 E12 E13 E17"/>
    </vehicle>
    <vehicle id="113" type="private" depart="113.00">
        <route edges="-E5 E3"/>
    </vehicle>
    <vehicle id="114" type="private" depart="114.00">
        <route edges="-E14 -E10 -E1 -E3 E8"/>
    </vehicle>
    <vehicle id="115" type="private" depart="115.00">
        <route edges="-E11 E15 E20 E22 -E17"/>
    </vehicle>
    <vehicle id="116" type="private" depart="116.00">
        <route edges="-E8 E3 E1 E2"/>
    </vehicle>
    <vehicle id="117" type="private" depart="117.00">
        <route edges="-E17 -E13 E16 -E20 -E15"/>
    </vehicle>
    <vehicle id="118" type="private" depart="118.00">
        <route edges="E3 E9 E13 E17 -E22"/>
    </vehicle>
    <vehicle id="119" type="private" depart="119.00">
        <route edges="-E8 E3 E9 -E12 E15 E18"/>
    </vehicle>
    <vehicle id="120" type="private" depart="120.00">
        <route edges="-E23 -E22 -E16 E13 E17"/>
    </vehicle>
    <vehicle id="121" type="private" depart="121.00">
        <route edges="-E5 E3 E1 E7"/>
    </vehicle>
    <vehicle id="122" type="private" depart="122.00">
        <route edges="-E16 -E12 E15 E20"/>
    </vehicle>
    <vehicle id="123" type="private" depart="123.00">
        <route edges="-E17 -E13 -E9 E1 E10"/>
    </vehicle>
    <vehicle id="124" type="private" depart="124.00">
        <route edges="E10 -E13 -E12 -E8 -E4"/>
    </vehicle>
    <vehicle id="125" type="private" depart="125.00">
        <route edges="-E2 E10 -E13 E16 E22"/>
    </vehicle>
    <vehicle id="126" type="private" depart="126.00">
        <route edges="-E11 E12"/>
    </vehicle>
    <vehicle id="127" type="private" depart="127.00">
        <route edges="E9"/>
    </vehicle>
    <vehicle id="128" type="private" depart="128.00">
        <route edges="-E11 E12 E16 -E20"/>
    </vehicle>
    <vehicle id="129" type="private" depart="129.00">
        <route edges="-E18 -E15 E12 -E9 E1 E7"/>
    </vehicle>
    <vehicle id="130" type="private" depart="130.00">
        <route edges="E22 -E17 -E13 -E9 -E3 E5"/>
    </vehicle>
    <vehicle id="131" type="private" depart="131.00">
        <route edges="-E21 -E16"/>
    </vehicle>
    <vehicle id="132" type="private" depart="132.00">
        <route edges="E20"/>
    </vehicle>
    <vehicle id="133" type="private" depart="133.00">
        <route edges="-E9 E1 E10 -E13 -E12 -E8 E3 E9"/>
    </vehicle>
    <vehicle id="134" type="private" depart="134.00">
        <route edges="E1 E10 E17 -E22 -E16 E13 -E10 -E1"/>
    </vehicle>
    <vehicle id="135" type="private" depart="135.00">
        <route edges="E17 -E22 -E16 -E12 -E8 -E4"/>
    </vehicle>
    <vehicle id="136" type="private" depart="136.00">
        <route edges="E1 E7"/>
    </vehicle>
    <vehicle id="137" type="private" depart="137.00">
        <route edges="-E13 E16 -E20 -E15"/>
    </vehicle>
    <vehicle id="138" type="private" depart="138.00">
        <route edges="-E12 E15"/>
    </vehicle>
    <vehicle id="139" type="private" depart="139.00">
        <route edges="-E18 -E15 E12 E13 E17"/>
    </vehicle>
    <vehicle id="140" type="private" depart="140.00">
        <route edges="E12 E16 -E20"/>
    </vehicle>
    <vehicle id="141" type="private" depart="141.00">
        <route edges="-E9 -E3"/>
    </vehicle>
    <vehicle id="142" type="private" depart="142.00">
        <route edges="-E3 E8 E12 -E9 E6"/>
    </vehicle>
    <vehicle id="143" type="private" depart="143.00">
        <route edges="E20 E22 -E17 -E13"/>
    </vehicle>
    <vehicle id="144" type="private" depart="144.00">
        <route edges="-E23 -E22 -E16 -E9 -E3"/>
    </vehicle>
    <vehicle id="145" type="private" depart="145.00">
        <route edges="-E1 E9 E16 E22"/>
    </vehicle>
    <vehicle id="146" type="private" depart="146.00">
        <route edges="-E9 -E3"/>
    </vehicle>
    <vehicle id="147" type="private" depart="147.00">
        <route edges="E13 E17 -E22 -E16 -E12 E15"/>
    </vehicle>
    <vehicle id="148" type="private" depart="148.00">
        <route edges="-E23 -E17 -E10 -E1"/>
    </vehicle>
    <vehicle id="149" type="private" depart="149.00">
        <route edges="-E11 -E8 E5"/>
    </vehicle>
    <vehicle id="150" type="private" depart="150.00">
        <route edges="E3 E9 -E12 E15"/>
    </vehicle>
    <vehicle id="151" type="private" depart="151.00">
        <route edges="E20 E22 -E17 -E13 E16"/>
    </vehicle>
    <vehicle id="152" type="private" depart="152.00">
        <route edges="-E14 E17 -E22 -E20 -E15"/>
    </vehicle>
    <vehicle id="153" type="private" depart="153.00">
        <route edges="-E2 -E1 E6"/>
    </vehicle>
    <vehicle id="154" type="private" depart="154.00">
        <route edges="E16 -E20 -E15 -E8 E3"/>
    </vehicle>
    <vehicle id="155" type="private" depart="155.00">
        <route edges="E3 E9 E16 -E20"/>
    </vehicle>
    <vehicle id="156" type="private" depart="156.00">
        <route edges="-E17 -E13"/>
    </vehicle>
    <vehicle id="157" type="private" depart="157.00">
        <route edges="E16 -E20 -E15 -E8 E5"/>
    </vehicle>
    <vehicle id="158" type="private" depart="158.00">
        <route edges="-E22 -E20 E18"/>
    </vehicle>
    <vehicle id="159" type="private" depart="159.00">
        <route edges="-E14 -E10 E7"/>
    </vehicle>
    <vehicle id="160" type="private" depart="160.00">
        <route edges="E22 -E17 -E10 -E1 E9"/>
    </vehicle>
    <vehicle id="161" type="private" depart="161.00">
        <route edges="E17 -E22 -E16 -E12 -E8 E5"/>
    </vehicle>
    <vehicle id="162" type="private" depart="162.00">
        <route edges="-E1 E9 E16 E21"/>
    </vehicle>
    <vehicle id="163" type="private" depart="163.00">
        <route edges="-E2 E7"/>
    </vehicle>
    <vehicle id="164" type="private" depart="164.00">
        <route edges="E16 -E20 -E15 -E8 E5"/>
    </vehicle>
    <vehicle id="165" type="private" depart="165.00">
        <route edges="E17 -E22 -E16 -E9 -E3"/>
    </vehicle>
    <vehicle id="166" type="private" depart="166.00">
        <route edges="E16 E22 -E17 -E13"/>
    </vehicle>
    <vehicle id="167" type="private" depart="167.00">
        <route edges="E22 -E17 -E13 -E12 -E8 E3"/>
    </vehicle>
    <vehicle id="168" type="private" depart="168.00">
        <route edges="-E17 -E13 E16 E22 E24"/>
    </vehicle>
    <vehicle id="169" type="private" depart="169.00">
        <route edges="-E24 -E17 -E13 -E12 -E8 -E4"/>
    </vehicle>
    <vehicle id="170" type="private" depart="170.00">
        <route edges="E16 -E20 -E15 E12 E13 E17 -E22"/>
    </vehicle>
    <vehicle id="171" type="private" depart="171.00">
        <route edges="-E1 E9 E16 E22 -E17"/>
    </vehicle>
    <vehicle id="172" type="private" depart="172.00">
        <route edges="-E2 -E1 -E3 E5"/>
    </vehicle>
    <vehicle id="173" type="private" depart="173.00">
        <route edges="E8 E12 -E9 -E3 -E4"/>
    </vehicle>
    <vehicle id="174" type="private" depart="174.00">
        <route edges="E1 E10"/>
    </vehicle>
    <vehicle id="175" type="private" depart="175.00">
        <route edges="E9 -E12 E15"/>
    </vehicle>
    <vehicle id="176" type="private" depart="176.00">
        <route edges="E4 E8 E12 E16 -E20 -E15"/>
    </vehicle>
    <vehicle id="177" type="private" depart="177.00">
        <route edges="E8 E12 E16 E22 -E17"/>
    </vehicle>
    <vehicle id="178" type="private" depart="178.00">
        <route edges="E8 E12 -E9 -E3"/>
    </vehicle>
    <vehicle id="179" type="private" depart="179.00">
        <route edges="-E12 E11"/>
    </vehicle>
    <vehicle id="180" type="private" depart="180.00">
        <route edges="E13 E17 -E22 -E16 -E12 -E8"/>
    </vehicle>
    <vehicle id="181" type="private" depart="181.00">
        <route edges="-E8 E3 E1 E10 E14"/>
    </vehicle>
    <vehicle id="182" type="private" depart="182.00">
        <route edges="-E21 -E20 -E15 E12 E16"/>
    </vehicle>
    <vehicle id="183" type="private" depart="183.00">
        <route edges="-E18 E20"/>
    </vehicle>
    <vehicle id="184" type="private" depart="184.00">
        <route edges="-E1 E9 E13 -E10 E7"/>
    </vehicle>
    <vehicle id="185" type="private" depart="185.00">
        <route edges="-E6 -E3 E8 E15 E20"/>
    </vehicle>
    <vehicle id="186" type="private" depart="186.00">
        <route edges="E13 -E10 E2"/>
    </vehicle>
    <vehicle id="187" type="private" depart="187.00">
        <route edges="-E21 -E16 -E12"/>
    </vehicle>
    <vehicle id="188" type="private" depart="188.00">
        <route edges="E1 E10 -E13 -E12 -E8"/>
    </vehicle>
    <vehicle id="189" type="private" depart="189.00">
        <route edges="-E2 E10 -E13 -E12 -E8 E3"/>
    </vehicle>
    <vehicle id="190" type="private" depart="190.00">
        <route edges="E12 -E9 -E3 -E4"/>
    </vehicle>
    <vehicle id="191" type="private" depart="191.00">
        <route edges="-E2 E10"/>
    </vehicle>
    <vehicle id="192" type="private" depart="192.00">
        <route edges="-E22 -E16 -E12 -E8 -E4"/>
    </vehicle>
    <vehicle id="193" type="private" depart="193.00">
        <route edges="-E13 -E12 E11"/>
    </vehicle>
    <vehicle id="194" type="private" depart="194.00">
        <route edges="E4 E3 E1 E2"/>
    </vehicle>
    <vehicle id="195" type="private" depart="195.00">
        <route edges="E3 E9 -E12 E15 E18"/>
    </vehicle>
    <vehicle id="196" type="private" depart="196.00">
        <route edges="-E19 E20 -E16 -E12 E15"/>
    </vehicle>
    <vehicle id="197" type="private" depart="197.00">
        <route edges="-E1 -E3 -E4"/>
    </vehicle>
    <vehicle id="198" type="private" depart="198.00">
        <route edges="-E23 -E17 -E13 E16"/>
    </vehicle>
    <vehicle id="199" type="private" depart="199.00">
        <route edges="E1 E10 -E13 E16 -E20 -E15 E12"/>
    </vehicle>
    <vehicle id="200" type="private" depart="200.00">
        <route edges="-E23 -E22 -E20"/>
    </vehicle>
    <vehicle id="201" type="private" depart="201.00">
        <route edges="-E3 E8 E12 -E9 E6"/>
    </vehicle>
    <vehicle id="202" type="private" depart="202.00">
        <route edges="E16 E22 -E17"/>
    </vehicle>
    <vehicle id="203" type="private" depart="203.00">
        <route edges="-E12 -E8 E3 E1 E10 E14"/>
    </vehicle>
    <vehicle id="204" type="private" depart="204.00">
        <route edges="-E9"/>
    </vehicle>
    <vehicle id="205" type="private" depart="205.00">
        <route edges="E17 -E22 -E20 -E15 E12 E16 E22"/>
    </vehicle>
    <vehicle id="206" type="private" depart="206.00">
        <route edges="E10 E17 -E22"/>
    </vehicle>
    <vehicle id="207" type="private" depart="207.00">
        <route edges="-E16 E13 -E10 -E1"/>
    </vehicle>
    <vehicle id="208" type="private" depart="208.00">
        <route edges="-E17 -E10 -E1 E9 E13"/>
    </vehicle>
    <vehicle id="209" type="private" depart="209.00">
        <route edges="E20 -E16 -E12"/>
    </vehicle>
    <vehicle id="210" type="private" depart="210.00">
        <route edges="-E22 -E20 E18"/>
    </vehicle>
    <vehicle id="211" type="private" depart="211.00">
        <route edges="-E15 -E8 E3 E9 -E12 E15 E20"/>
    </vehicle>
    <vehicle id="212" type="private" depart="212.00">
        <route edges="-E3 E8 E12 E13 E17 -E22"/>
    </vehicle>
    <vehicle id="213" type="private" depart="213.00">
        <route edges="E1 E10 E17 -E22 -E16 E13 -E10 -E1"/>
    </vehicle>
    <vehicle id="214" type="private" depart="214.00">
        <route edges="E15 E20 E22"/>
    </vehicle>
    <vehicle id="215" type="private" depart="215.00">
        <route edges="-E12 E11"/>
    </vehicle>
    <vehicle id="216" type="private" depart="216.00">
        <route edges="-E15 E12 -E9 -E3 E8"/>
    </vehicle>
    <vehicle id="217" type="private" depart="217.00">
        <route edges="-E5 E3 E9 E13 -E10"/>
    </vehicle>
    <vehicle id="218" type="private" depart="218.00">
        <route edges="-E17 -E13 -E12 -E8 E3"/>
    </vehicle>
    <vehicle id="219" type="private" depart="219.00">
        <route edges="-E24 E23"/>
    </vehicle>
    <vehicle id="220" type="private" depart="220.00">
        <route edges="E10 -E13 -E12 -E8 E3 E9"/>
    </vehicle>
    <vehicle id="221" type="private" depart="221.00">
        <route edges="-E8 E3 E1 E10 -E13 -E9 -E3 E8"/>
    </vehicle>
    <vehicle id="222" type="private" depart="222.00">
        <route edges="E3 E9 -E12 E15 E18"/>
    </vehicle>
    <vehicle id="223" type="private" depart="223.00">
        <route edges="E12 E13 E14"/>
    </vehicle>
    <vehicle id="224" type="private" depart="224.00">
        <route edges="E17 -E22 -E16 -E12 E15"/>
    </vehicle>
    <vehicle id="225" type="private" depart="225.00">
        <route edges="E3 E9 E16 E21"/>
    </vehicle>
    <vehicle id="226" type="private" depart="226.00">
        <route edges="-E3"/>
    </vehicle>
    <vehicle id="227" type="private" depart="227.00">
        <route edges="-E17 -E13 E16 -E20 E18"/>
    </vehicle>
    <vehicle id="228" type="private" depart="228.00">
        <route edges="E15 E20 -E16 E13 E14"/>
    </vehicle>
    <vehicle id="229" type="private" depart="229.00">
        <route edges="-E9 -E3"/>
    </vehicle>
    <vehicle id="230" type="private" depart="230.00">
        <route edges="-E11 -E8 -E4"/>
    </vehicle>
    <vehicle id="231" type="private" depart="231.00">
        <route edges="-E18 -E15 -E8"/>
    </vehicle>
    <vehicle id="232" type="private" depart="232.00">
        <route edges="-E6 E9 E16 -E20 -E15"/>
    </vehicle>
    <vehicle id="233" type="private" depart="233.00">
        <route edges="-E17 -E10 E2"/>
    </vehicle>
    <vehicle id="234" type="private" depart="234.00">
        <route edges="E12 E13 E17 -E22 -E16 -E12"/>
    </vehicle>
    <vehicle id="235" type="private" depart="235.00">
        <route edges="-E22 -E16 -E12 E15"/>
    </vehicle>
    <vehicle id="236" type="private" depart="236.00">
        <route edges="-E22 -E20"/>
    </vehicle>
    <vehicle id="237" type="private" depart="237.00">
        <route edges="-E23 -E22 -E16 -E9 E6"/>
    </vehicle>
    <vehicle id="238" type="private" depart="238.00">
        <route edges="-E8 E3 E9 -E12 E15 E20"/>
    </vehicle>
    <vehicle id="239" type="private" depart="239.00">
        <route edges="E20 E22"/>
    </vehicle>
    <vehicle id="240" type="private" depart="240.00">
        <route edges="-E21 E22 -E17 -E10 -E1"/>
    </vehicle>
    <vehicle id="241" type="private" depart="241.00">
        <route edges="-E20 -E15 E12 E16 E22"/>
    </vehicle>
    <vehicle id="242" type="private" depart="242.00">
        <route edges="E20 -E16 -E9 -E3 E8"/>
    </vehicle>
    <vehicle id="243" type="private" depart="243.00">
        <route edges="-E23 -E22 E21"/>
    </vehicle>
    <vehicle id="244" type="private" depart="244.00">
        <route edges="-E6 E1 E10 E17"/>
    </vehicle>
    <vehicle id="245" type="private" depart="245.00">
        <route edges="-E16 E13 E17 -E22 -E20"/>
    </vehicle>
    <vehicle id="246" type="private" depart="246.00">
        <route edges="-E23 -E17 -E10"/>
    </vehicle>
    <vehicle id="247" type="private" depart="247.00">
        <route edges="-E20 -E15 E12 -E9 E1 E2"/>
    </vehicle>
    <vehicle id="248" type="private" depart="248.00">
        <route edges="-E22 -E16"/>
    </vehicle>
    <vehicle id="249" type="private" depart="249.00">
        <route edges="-E24 -E22 -E20 -E15"/>
    </vehicle>
    <vehicle id="250" type="private" depart="250.00">
        <route edges="-E9 -E3 E8 E12 E13 -E10 -E1"/>
    </vehicle>
    <vehicle id="251" type="private" depart="251.00">
        <route edges="-E22 -E20 -E15 E12 E16"/>
    </vehicle>
    <vehicle id="252" type="private" depart="252.00">
        <route edges="-E1 E9 E16 -E20 E19"/>
    </vehicle>
    <vehicle id="253" type="private" depart="253.00">
        <route edges="-E13 E16 -E20 -E15 E12"/>
    </vehicle>
    <vehicle id="254" type="private" depart="254.00">
        <route edges="-E10 -E1 E9 -E12 -E8 E3 E1"/>
    </vehicle>
    <vehicle id="255" type="private" depart="255.00">
        <route edges="-E16 -E12 -E8"/>
    </vehicle>
    <vehicle id="256" type="private" depart="256.00">
        <route edges="E15 E20 -E16 -E9 E1"/>
    </vehicle>
    <vehicle id="257" type="private" depart="257.00">
        <route edges="E15 E20 E22 E24"/>
    </vehicle>
    <vehicle id="258" type="private" depart="258.00">
        <route edges="-E18 E20 -E16 -E12"/>
    </vehicle>
    <vehicle id="259" type="private" depart="259.00">
        <route edges="-E1 E9 -E12 E15"/>
    </vehicle>
    <vehicle id="260" type="private" depart="260.00">
        <route edges="E9 E16 -E20 -E15 E12 -E9"/>
    </vehicle>
    <vehicle id="261" type="private" depart="261.00">
        <route edges="E1 E10 E17 E23"/>
    </vehicle>
    <vehicle id="262" type="private" depart="262.00">
        <route edges="E1 E10 -E13 E16 E22"/>