<?xml version="1.0" encoding="UTF-8"?>

<!-- generated on 2022-04-12 14:11:22 by Eclipse SUMO netedit Version v1_12_0+1907-607e5205ffc
<configuration xmlns:xsi="http://www.w3.org/2001/XMLSchema-instance" xsi:noNamespaceSchemaLocation="http://sumo.dlr.de/xsd/netconvertConfiguration.xsd">

    <input>
        <sumo-net-file value="D:\OneDrive%20-%20Danmarks%20Tekniske%20Universitet\Skrivebord\R-TuRBO\R-TuRBO-V2\hello2.net.xml"/>
    </input>

    <output>
        <output-file value="D:\OneDrive%20-%20Danmarks%20Tekniske%20Universitet\Skrivebord\R-TuRBO\R-TuRBO-V2\hello2.net.xml"/>
    </output>

    <processing>
        <geometry.min-radius.fix.railways value="false"/>
        <geometry.max-grade.fix value="false"/>
        <offset.disable-normalization value="true"/>
        <lefthand value="false"/>
    </processing>

    <junctions>
        <no-turnarounds value="true"/>
        <junctions.corner-detail value="5"/>
        <junctions.limit-turn-speed value="5.5"/>
        <rectangular-lane-cut value="false"/>
    </junctions>

    <pedestrian>
        <walkingareas value="false"/>
    </pedestrian>

    <report>
        <aggregate-warnings value="5"/>
    </report>

</configuration>
-->

<net version="1.9" junctionCornerDetail="5" limitTurnSpeed="5.50" xmlns:xsi="http://www.w3.org/2001/XMLSchema-instance" xsi:noNamespaceSchemaLocation="http://sumo.dlr.de/xsd/net_file.xsd">

    <location netOffset="0.00,0.00" convBoundary="0.00,-200.00,800.00,600.00" origBoundary="-10000000000.00,-10000000000.00,10000000000.00,10000000000.00" projParameter="!"/>

    <edge id=":J1_0" function="internal">
        <lane id=":J1_0_0" index="0" allow="private passenger taxi bus coach" speed="6.51" length="9.03" shape="191.00,414.60 190.65,412.15 189.60,410.40 187.85,409.35 185.40,409.00"/>
    </edge>
    <edge id=":J1_1" function="internal">
        <lane id=":J1_1_0" index="0" allow="private passenger taxi bus coach" speed="20.00" length="29.20" shape="194.20,414.60 194.20,385.40"/>
    </edge>
    <edge id=":J1_2" function="internal">
        <lane id=":J1_2_0" index="0" allow="private passenger taxi bus coach" speed="11.00" length="27.74" shape="197.40,414.60 198.47,407.07 201.70,401.70 207.07,398.47 214.60,397.40"/>
    </edge>
    <edge id=":J1_3" function="internal">
        <lane id=":J1_3_0" index="0" allow="private passenger taxi bus coach" speed="6.51" length="9.03" shape="214.60,409.00 212.15,409.35 210.40,410.40 209.35,412.15 209.00,414.60"/>
    </edge>
    <edge id=":J1_4" function="internal">
        <lane id=":J1_4_0" index="0" allow="private passenger taxi bus coach" speed="20.00" length="29.20" shape="214.60,405.80 185.40,405.80"/>
    </edge>
    <edge id=":J1_5" function="internal">
        <lane id=":J1_5_0" index="0" allow="private passenger taxi bus coach" speed="11.00" length="27.74" shape="214.60,402.60 207.07,401.52 201.70,398.30 198.48,392.93 197.40,385.40"/>
    </edge>
    <edge id=":J1_6" function="internal">
        <lane id=":J1_6_0" index="0" allow="private passenger taxi bus coach" speed="6.51" length="9.03" shape="209.00,385.40 209.35,387.85 210.40,389.60 212.15,390.65 214.60,391.00"/>
    </edge>
    <edge id=":J1_7" function="internal">
        <lane id=":J1_7_0" index="0" allow="private passenger taxi bus coach" speed="20.00" length="29.20" shape="205.80,385.40 205.80,414.60"/>
    </edge>
    <edge id=":J1_8" function="internal">
        <lane id=":J1_8_0" index="0" allow="private passenger taxi bus coach" speed="11.00" length="27.74" shape="202.60,385.40 201.53,392.93 198.30,398.30 192.93,401.53 185.40,402.60"/>
    </edge>
    <edge id=":J1_9" function="internal">
        <lane id=":J1_9_0" index="0" allow="private passenger taxi bus coach" speed="6.51" length="9.03" shape="185.40,391.00 187.85,390.65 189.60,389.60 190.65,387.85 191.00,385.40"/>
    </edge>
    <edge id=":J1_10" function="internal">
        <lane id=":J1_10_0" index="0" allow="private passenger taxi bus coach" speed="20.00" length="29.20" shape="185.40,394.20 214.60,394.20"/>
    </edge>
    <edge id=":J1_11" function="internal">
        <lane id=":J1_11_0" index="0" allow="private passenger taxi bus coach" speed="11.00" length="27.74" shape="185.40,397.40 192.93,398.48 198.30,401.70 201.52,407.07 202.60,414.60"/>
    </edge>
    <edge id=":J2_0" function="internal">
        <lane id=":J2_0_0" index="0" allow="private passenger taxi bus coach" speed="6.51" length="9.03" shape="391.00,414.60 390.65,412.15 389.60,410.40 387.85,409.35 385.40,409.00"/>
    </edge>
    <edge id=":J2_1" function="internal">
        <lane id=":J2_1_0" index="0" allow="private passenger taxi bus coach" speed="20.00" length="29.20" shape="394.20,414.60 394.20,385.40"/>
    </edge>
    <edge id=":J2_2" function="internal">
        <lane id=":J2_2_0" index="0" allow="private passenger taxi bus coach" speed="11.00" length="27.74" shape="397.40,414.60 398.48,407.07 401.70,401.70 407.07,398.47 414.60,397.40"/>
    </edge>
    <edge id=":J2_3" function="internal">
        <lane id=":J2_3_0" index="0" allow="private passenger taxi bus coach" speed="6.51" length="9.03" shape="414.60,409.00 412.15,409.35 410.40,410.40 409.35,412.15 409.00,414.60"/>
    </edge>
    <edge id=":J2_4" function="internal">
        <lane id=":J2_4_0" index="0" allow="private passenger taxi bus coach" speed="20.00" length="29.20" shape="414.60,405.80 385.40,405.80"/>
    </edge>
    <edge id=":J2_5" function="internal">
        <lane id=":J2_5_0" index="0" allow="private passenger taxi bus coach" speed="11.00" length="27.74" shape="414.60,402.60 407.07,401.52 401.70,398.30 398.47,392.93 397.40,385.40"/>
    </edge>
    <edge id=":J2_6" function="internal">
        <lane id=":J2_6_0" index="0" allow="private passenger taxi bus coach" speed="6.51" length="9.03" shape="409.00,385.40 409.35,387.85 410.40,389.60 412.15,390.65 414.60,391.00"/>
    </edge>
    <edge id=":J2_7" function="internal">
        <lane id=":J2_7_0" index="0" allow="private passenger taxi bus coach" speed="20.00" length="29.20" shape="405.80,385.40 405.80,414.60"/>
    </edge>
    <edge id=":J2_8" function="internal">
        <lane id=":J2_8_0" index="0" allow="private passenger taxi bus coach" speed="11.00" length="27.74" shape="402.60,385.40 401.52,392.93 398.30,398.30 392.93,401.53 385.40,402.60"/>
    </edge>
    <edge id=":J2_9" function="internal">
        <lane id=":J2_9_0" index="0" allow="private passenger taxi bus coach" speed="6.51" length="9.03" shape="385.40,391.00 387.85,390.65 389.60,389.60 390.65,387.85 391.00,385.40"/>
    </edge>
    <edge id=":J2_10" function="internal">
        <lane id=":J2_10_0" index="0" allow="private passenger taxi bus coach" speed="20.00" length="29.20" shape="385.40,394.20 414.60,394.20"/>
    </edge>
    <edge id=":J2_11" function="internal">
        <lane id=":J2_11_0" index="0" allow="private passenger taxi bus coach" speed="11.00" length="27.74" shape="385.40,397.40 392.93,398.48 398.30,401.70 401.53,407.07 402.60,414.60"/>
    </edge>
    <edge id=":J3_0" function="internal">
        <lane id=":J3_0_0" index="0" allow="private passenger taxi bus coach" speed="6.51" length="9.03" shape="591.00,414.60 590.65,412.15 589.60,410.40 587.85,409.35 585.40,409.00"/>
    </edge>
    <edge id=":J3_1" function="internal">
        <lane id=":J3_1_0" index="0" allow="private passenger taxi bus coach" speed="20.00" length="29.20" shape="594.20,414.60 594.20,385.40"/>
    </edge>
    <edge id=":J3_2" function="internal">
        <lane id=":J3_2_0" index="0" allow="private passenger taxi bus coach" speed="11.00" length="27.74" shape="597.40,414.60 598.48,407.07 601.70,401.70 607.08,398.47 614.60,397.40"/>
    </edge>
    <edge id=":J3_3" function="internal">
        <lane id=":J3_3_0" index="0" allow="private passenger taxi bus coach" speed="6.51" length="9.03" shape="614.60,409.00 612.15,409.35 610.40,410.40 609.35,412.15 609.00,414.60"/>
    </edge>
    <edge id=":J3_4" function="internal">
        <lane id=":J3_4_0" index="0" allow="private passenger taxi bus coach" speed="20.00" length="29.20" shape="614.60,405.80 585.40,405.80"/>
    </edge>
    <edge id=":J3_5" function="internal">
        <lane id=":J3_5_0" index="0" allow="private passenger taxi bus coach" speed="11.00" length="27.74" shape="614.60,402.60 607.07,401.52 601.70,398.30 598.47,392.93 597.40,385.40"/>
    </edge>
    <edge id=":J3_6" function="internal">
        <lane id=":J3_6_0" index="0" allow="private passenger taxi bus coach" speed="6.51" length="9.03" shape="609.00,385.40 609.35,387.85 610.40,389.60 612.15,390.65 614.60,391.00"/>
    </edge>
    <edge id=":J3_7" function="internal">
        <lane id=":J3_7_0" index="0" allow="private passenger taxi bus coach" speed="20.00" length="29.20" shape="605.80,385.40 605.80,414.60"/>
    </edge>
    <edge id=":J3_8" function="internal">
        <lane id=":J3_8_0" index="0" allow="private passenger taxi bus coach" speed="11.00" length="27.74" shape="602.60,385.40 601.52,392.93 598.30,398.30 592.92,401.53 585.40,402.60"/>
    </edge>
    <edge id=":J3_9" function="internal">
        <lane id=":J3_9_0" index="0" allow="private passenger taxi bus coach" speed="6.51" length="9.03" shape="585.40,391.00 587.85,390.65 589.60,389.60 590.65,387.85 591.00,385.40"/>
    </edge>
    <edge id=":J3_10" function="internal">
        <lane id=":J3_10_0" index="0" allow="private passenger taxi bus coach" speed="20.00" length="29.20" shape="585.40,394.20 614.60,394.20"/>
    </edge>
    <edge id=":J3_11" function="internal">
        <lane id=":J3_11_0" index="0" allow="private passenger taxi bus coach" speed="11.00" length="27.74" shape="585.40,397.40 592.93,398.48 598.30,401.70 601.53,407.07 602.60,414.60"/>
    </edge>
    <edge id=":J4_0" function="internal">
        <lane id=":J4_0_0" index="0" allow="private passenger bus coach" speed="6.51" length="9.03" shape="191.00,214.60 190.65,212.15 189.60,210.40 187.85,209.35 185.40,209.00"/>
    </edge>
    <edge id=":J4_1" function="internal">
        <lane id=":J4_1_0" index="0" allow="private passenger taxi bus coach" speed="20.00" length="29.20" shape="194.20,214.60 194.20,185.40"/>
    </edge>
    <edge id=":J4_2" function="internal">
        <lane id=":J4_2_0" index="0" allow="private passenger taxi bus coach" speed="11.00" length="27.74" shape="197.40,214.60 198.47,207.07 201.70,201.70 207.07,198.48 214.60,197.40"/>
    </edge>
    <edge id=":J4_3" function="internal">
        <lane id=":J4_3_0" index="0" allow="private passenger taxi bus coach" speed="6.51" length="9.03" shape="214.60,209.00 212.15,209.35 210.40,210.40 209.35,212.15 209.00,214.60"/>
    </edge>
    <edge id=":J4_4" function="internal">
        <lane id=":J4_4_0" index="0" allow="private passenger bus coach" speed="20.00" length="29.20" shape="214.60,205.80 185.40,205.80"/>
    </edge>
    <edge id=":J4_5" function="internal">
        <lane id=":J4_5_0" index="0" allow="private passenger taxi bus coach" speed="11.00" length="27.74" shape="214.60,202.60 207.07,201.53 201.70,198.30 198.48,192.93 197.40,185.40"/>
    </edge>
    <edge id=":J4_6" function="internal">
        <lane id=":J4_6_0" index="0" allow="private passenger taxi bus coach" speed="6.51" length="9.03" shape="209.00,185.40 209.35,187.85 210.40,189.60 212.15,190.65 214.60,191.00"/>
    </edge>
    <edge id=":J4_7" function="internal">
        <lane id=":J4_7_0" index="0" allow="private passenger taxi bus coach" speed="20.00" length="29.20" shape="205.80,185.40 205.80,214.60"/>
    </edge>
    <edge id=":J4_8" function="internal">
        <lane id=":J4_8_0" index="0" allow="private passenger bus coach" speed="11.00" length="27.74" shape="202.60,185.40 201.53,192.93 198.30,198.30 192.93,201.52 185.40,202.60"/>
    </edge>
    <edge id=":J4_9" function="internal">
        <lane id=":J4_9_0" index="0" allow="private passenger taxi bus coach" speed="6.51" length="9.03" shape="185.40,191.00 187.85,190.65 189.60,189.60 190.65,187.85 191.00,185.40"/>
    </edge>
    <edge id=":J4_10" function="internal">
        <lane id=":J4_10_0" index="0" allow="private passenger taxi bus coach" speed="20.00" length="29.20" shape="185.40,194.20 214.60,194.20"/>
    </edge>
    <edge id=":J4_11" function="internal">
        <lane id=":J4_11_0" index="0" allow="private passenger taxi bus coach" speed="11.00" length="27.74" shape="185.40,197.40 192.93,198.47 198.30,201.70 201.52,207.07 202.60,214.60"/>
    </edge>
    <edge id=":J5_0" function="internal">
        <lane id=":J5_0_0" index="0" allow="private passenger taxi bus coach" speed="6.51" length="9.03" shape="391.00,214.60 390.65,212.15 389.60,210.40 387.85,209.35 385.40,209.00"/>
    </edge>
    <edge id=":J5_1" function="internal">
        <lane id=":J5_1_0" index="0" allow="private passenger taxi bus coach" speed="20.00" length="29.20" shape="394.20,214.60 394.20,185.40"/>
    </edge>
    <edge id=":J5_2" function="internal">
        <lane id=":J5_2_0" index="0" allow="private passenger taxi bus coach" speed="11.00" length="27.74" shape="397.40,214.60 398.48,207.07 401.70,201.70 407.07,198.48 414.60,197.40"/>
    </edge>
    <edge id=":J5_3" function="internal">
        <lane id=":J5_3_0" index="0" allow="private passenger taxi bus coach" speed="6.51" length="9.03" shape="414.60,209.00 412.15,209.35 410.40,210.40 409.35,212.15 409.00,214.60"/>
    </edge>
    <edge id=":J5_4" function="internal">
        <lane id=":J5_4_0" index="0" allow="private passenger taxi bus coach" speed="20.00" length="29.20" shape="414.60,205.80 385.40,205.80"/>
    </edge>
    <edge id=":J5_5" function="internal">
        <lane id=":J5_5_0" index="0" allow="private passenger taxi bus coach" speed="11.00" length="27.74" shape="414.60,202.60 407.07,201.53 401.70,198.30 398.47,192.93 397.40,185.40"/>
    </edge>
    <edge id=":J5_6" function="internal">
        <lane id=":J5_6_0" index="0" allow="private passenger taxi bus coach" speed="6.51" length="9.03" shape="409.00,185.40 409.35,187.85 410.40,189.60 412.15,190.65 414.60,191.00"/>
    </edge>
    <edge id=":J5_7" function="internal">
        <lane id=":J5_7_0" index="0" allow="private passenger taxi bus coach" speed="20.00" length="29.20" shape="405.80,185.40 405.80,214.60"/>
    </edge>
    <edge id=":J5_8" function="internal">
        <lane id=":J5_8_0" index="0" allow="private passenger taxi bus coach" speed="11.00" length="27.74" shape="402.60,185.40 401.52,192.93 398.30,198.30 392.93,201.52 385.40,202.60"/>
    </edge>
    <edge id=":J5_9" function="internal">
        <lane id=":J5_9_0" index="0" allow="private passenger taxi bus coach" speed="6.51" length="9.03" shape="385.40,191.00 387.85,190.65 389.60,189.60 390.65,187.85 391.00,185.40"/>
    </edge>
    <edge id=":J5_10" function="internal">
        <lane id=":J5_10_0" index="0" allow="private passenger taxi bus coach" speed="20.00" length="29.20" shape="385.40,194.20 414.60,194.20"/>
    </edge>
    <edge id=":J5_11" function="internal">
        <lane id=":J5_11_0" index="0" allow="private passenger taxi bus coach" speed="11.00" length="27.74" shape="385.40,197.40 392.93,198.47 398.30,201.70 401.53,207.07 402.60,214.60"/>
    </edge>
    <edge id=":J6_0" function="internal">
        <lane id=":J6_0_0" index="0" allow="private passenger taxi bus coach" speed="6.51" length="9.03" shape="591.00,214.60 590.65,212.15 589.60,210.40 587.85,209.35 585.40,209.00"/>
    </edge>
    <edge id=":J6_1" function="internal">
        <lane id=":J6_1_0" index="0" allow="private passenger taxi bus coach" speed="20.00" length="29.20" shape="594.20,214.60 594.20,185.40"/>
    </edge>
    <edge id=":J6_2" function="internal">
        <lane id=":J6_2_0" index="0" allow="private passenger taxi bus coach" speed="11.00" length="27.74" shape="597.40,214.60 598.48,207.07 601.70,201.70 607.08,198.48 614.60,197.40"/>
    </edge>
    <edge id=":J6_3" function="internal">
        <lane id=":J6_3_0" index="0" allow="private passenger taxi bus coach" speed="6.51" length="9.03" shape="614.60,209.00 612.15,209.35 610.40,210.40 609.35,212.15 609.00,214.60"/>
    </edge>
    <edge id=":J6_4" function="internal">
        <lane id=":J6_4_0" index="0" allow="private passenger taxi bus coach" speed="20.00" length="29.20" shape="614.60,205.80 585.40,205.80"/>
    </edge>
    <edge id=":J6_5" function="internal">
        <lane id=":J6_5_0" index="0" allow="private passenger taxi bus coach" speed="11.00" length="27.74" shape="614.60,202.60 607.07,201.53 601.70,198.30 598.47,192.93 597.40,185.40"/>
    </edge>
    <edge id=":J6_6" function="internal">
        <lane id=":J6_6_0" index="0" allow="private passenger taxi bus coach" speed="6.51" length="9.03" shape="609.00,185.40 609.35,187.85 610.40,189.60 612.15,190.65 614.60,191.00"/>
    </edge>
    <edge id=":J6_7" function="internal">
        <lane id=":J6_7_0" index="0" allow="private passenger taxi bus coach" speed="20.00" length="29.20" shape="605.80,185.40 605.80,214.60"/>
    </edge>
    <edge id=":J6_8" function="internal">
        <lane id=":J6_8_0" index="0" allow="private passenger taxi bus coach" speed="11.00" length="27.74" shape="602.60,185.40 601.52,192.93 598.30,198.30 592.92,201.52 585.40,202.60"/>
    </edge>
    <edge id=":J6_9" function="internal">
        <lane id=":J6_9_0" index="0" allow="private passenger taxi bus coach" speed="6.51" length="9.03" shape="585.40,191.00 587.85,190.65 589.60,189.60 590.65,187.85 591.00,185.40"/>
    </edge>
    <edge id=":J6_10" function="internal">
        <lane id=":J6_10_0" index="0" allow="private passenger taxi bus coach" speed="20.00" length="29.20" shape="585.40,194.20 614.60,194.20"/>
    </edge>
    <edge id=":J6_11" function="internal">
        <lane id=":J6_11_0" index="0" allow="private passenger taxi bus coach" speed="11.00" length="27.74" shape="585.40,197.40 592.93,198.47 598.30,201.70 601.53,207.07 602.60,214.60"/>
    </edge>
    <edge id=":J7_0" function="internal">
        <lane id=":J7_0_0" index="0" allow="private passenger taxi bus coach" speed="6.51" length="9.03" shape="191.00,14.60 190.65,12.15 189.60,10.40 187.85,9.35 185.40,9.00"/>
    </edge>
    <edge id=":J7_1" function="internal">
        <lane id=":J7_1_0" index="0" allow="private passenger taxi bus coach" speed="20.00" length="29.20" shape="194.20,14.60 194.20,-14.60"/>
    </edge>
    <edge id=":J7_2" function="internal">
        <lane id=":J7_2_0" index="0" allow="private passenger taxi bus coach" speed="11.00" length="27.74" shape="197.40,14.60 198.47,7.07 201.70,1.70 207.07,-1.52 214.60,-2.60"/>
    </edge>
    <edge id=":J7_3" function="internal">
        <lane id=":J7_3_0" index="0" allow="private passenger taxi bus coach" speed="6.51" length="9.03" shape="214.60,9.00 212.15,9.35 210.40,10.40 209.35,12.15 209.00,14.60"/>
    </edge>
    <edge id=":J7_4" function="internal">
        <lane id=":J7_4_0" index="0" allow="private passenger taxi bus coach" speed="20.00" length="29.20" shape="214.60,5.80 185.40,5.80"/>
    </edge>
    <edge id=":J7_5" function="internal">
        <lane id=":J7_5_0" index="0" allow="private passenger taxi bus coach" speed="11.00" length="27.74" shape="214.60,2.60 207.07,1.53 201.70,-1.70 198.48,-7.07 197.40,-14.60"/>
    </edge>
    <edge id=":J7_6" function="internal">
        <lane id=":J7_6_0" index="0" allow="private passenger taxi bus coach" speed="6.51" length="9.03" shape="209.00,-14.60 209.35,-12.15 210.40,-10.40 212.15,-9.35 214.60,-9.00"/>
    </edge>
    <edge id=":J7_7" function="internal">
        <lane id=":J7_7_0" index="0" allow="private passenger taxi bus coach" speed="20.00" length="29.20" shape="205.80,-14.60 205.80,14.60"/>
    </edge>
    <edge id=":J7_8" function="internal">
        <lane id=":J7_8_0" index="0" allow="private passenger taxi bus coach" speed="11.00" length="27.74" shape="202.60,-14.60 201.53,-7.07 198.30,-1.70 192.93,1.52 185.40,2.60"/>
    </edge>
    <edge id=":J7_9" function="internal">
        <lane id=":J7_9_0" index="0" allow="private passenger taxi bus coach" speed="6.51" length="9.03" shape="185.40,-9.00 187.85,-9.35 189.60,-10.40 190.65,-12.15 191.00,-14.60"/>
    </edge>
    <edge id=":J7_10" function="internal">
        <lane id=":J7_10_0" index="0" allow="private passenger taxi bus coach" speed="20.00" length="29.20" shape="185.40,-5.80 214.60,-5.80"/>
    </edge>
    <edge id=":J7_11" function="internal">
        <lane id=":J7_11_0" index="0" allow="private passenger taxi bus coach" speed="11.00" length="27.74" shape="185.40,-2.60 192.93,-1.53 198.30,1.70 201.52,7.07 202.60,14.60"/>
    </edge>
    <edge id=":J8_0" function="internal">
        <lane id=":J8_0_0" index="0" allow="private passenger taxi bus coach" speed="6.51" length="9.03" shape="391.00,14.60 390.65,12.15 389.60,10.40 387.85,9.35 385.40,9.00"/>
    </edge>
    <edge id=":J8_1" function="internal">
        <lane id=":J8_1_0" index="0" allow="private passenger taxi bus coach" speed="20.00" length="29.20" shape="394.20,14.60 394.20,-14.60"/>
    </edge>
    <edge id=":J8_2" function="internal">
        <lane id=":J8_2_0" index="0" allow="private passenger taxi bus coach" speed="11.00" length="27.74" shape="397.40,14.60 398.48,7.07 401.70,1.70 407.07,-1.52 414.60,-2.60"/>
    </edge>
    <edge id=":J8_3" function="internal">
        <lane id=":J8_3_0" index="0" allow="private passenger taxi bus coach" speed="6.51" length="9.03" shape="414.60,9.00 412.15,9.35 410.40,10.40 409.35,12.15 409.00,14.60"/>
    </edge>
    <edge id=":J8_4" function="internal">
        <lane id=":J8_4_0" index="0" allow="private passenger taxi bus coach" speed="20.00" length="29.20" shape="414.60,5.80 385.40,5.80"/>
    </edge>
    <edge id=":J8_5" function="internal">
        <lane id=":J8_5_0" index="0" allow="private passenger taxi bus coach" speed="11.00" length="27.74" shape="414.60,2.60 407.07,1.53 401.70,-1.70 398.47,-7.07 397.40,-14.60"/>
    </edge>
    <edge id=":J8_6" function="internal">
        <lane id=":J8_6_0" index="0" allow="private passenger taxi bus coach" speed="6.51" length="9.03" shape="409.00,-14.60 409.35,-12.15 410.40,-10.40 412.15,-9.35 414.60,-9.00"/>
    </edge>
    <edge id=":J8_7" function="internal">
        <lane id=":J8_7_0" index="0" allow="private passenger taxi bus coach" speed="20.00" length="29.20" shape="405.80,-14.60 405.80,14.60"/>
    </edge>
    <edge id=":J8_8" function="internal">
        <lane id=":J8_8_0" index="0" allow="private passenger taxi bus coach" speed="11.00" length="27.74" shape="402.60,-14.60 401.52,-7.07 398.30,-1.70 392.93,1.52 385.40,2.60"/>
    </edge>
    <edge id=":J8_9" function="internal">
        <lane id=":J8_9_0" index="0" allow="private passenger taxi bus coach" speed="6.51" length="9.03" shape="385.40,-9.00 387.85,-9.35 389.60,-10.40 390.65,-12.15 391.00,-14.60"/>
    </edge>
    <edge id=":J8_10" function="internal">
        <lane id=":J8_10_0" index="0" allow="private passenger taxi bus coach" speed="20.00" length="29.20" shape="385.40,-5.80 414.60,-5.80"/>
    </edge>
    <edge id=":J8_11" function="internal">
        <lane id=":J8_11_0" index="0" allow="private passenger taxi bus coach" speed="11.00" length="27.74" shape="385.40,-2.60 392.93,-1.53 398.30,1.70 401.53,7.07 402.60,14.60"/>
    </edge>
    <edge id=":J9_0" function="internal">
        <lane id=":J9_0_0" index="0" allow="private passenger taxi bus coach" speed="6.51" length="9.03" shape="591.00,14.60 590.65,12.15 589.60,10.40 587.85,9.35 585.40,9.00"/>
    </edge>
    <edge id=":J9_1" function="internal">
        <lane id=":J9_1_0" index="0" allow="private passenger taxi bus coach" speed="20.00" length="29.20" shape="594.20,14.60 594.20,-14.60"/>
    </edge>
    <edge id=":J9_2" function="internal">
        <lane id=":J9_2_0" index="0" allow="private passenger taxi bus coach" speed="11.00" length="27.74" shape="597.40,14.60 598.48,7.07 601.70,1.70 607.08,-1.52 614.60,-2.60"/>
    </edge>
    <edge id=":J9_3" function="internal">
        <lane id=":J9_3_0" index="0" allow="private passenger taxi bus coach" speed="6.51" length="9.03" shape="614.60,9.00 612.15,9.35 610.40,10.40 609.35,12.15 609.00,14.60"/>
    </edge>
    <edge id=":J9_4" function="internal">
        <lane id=":J9_4_0" index="0" allow="private passenger taxi bus coach" speed="20.00" length="29.20" shape="614.60,5.80 585.40,5.80"/>
    </edge>
    <edge id=":J9_5" function="internal">
        <lane id=":J9_5_0" index="0" allow="private passenger taxi bus coach" speed="11.00" length="27.74" shape="614.60,2.60 607.07,1.53 601.70,-1.70 598.47,-7.07 597.40,-14.60"/>
    </edge>
    <edge id=":J9_6" function="internal">
        <lane id=":J9_6_0" index="0" allow="private passenger taxi bus coach" speed="6.51" length="9.03" shape="609.00,-14.60 609.35,-12.15 610.40,-10.40 612.15,-9.35 614.60,-9.00"/>
    </edge>
    <edge id=":J9_7" function="internal">
        <lane id=":J9_7_0" index="0" allow="private passenger taxi bus coach" speed="20.00" length="29.20" shape="605.80,-14.60 605.80,14.60"/>
    </edge>
    <edge id=":J9_8" function="internal">
        <lane id=":J9_8_0" index="0" allow="private passenger taxi bus coach" speed="11.00" length="27.74" shape="602.60,-14.60 601.52,-7.07 598.30,-1.70 592.92,1.52 585.40,2.60"/>
    </edge>
    <edge id=":J9_9" function="internal">
        <lane id=":J9_9_0" index="0" allow="private passenger taxi bus coach" speed="6.51" length="9.03" shape="585.40,-9.00 587.85,-9.35 589.60,-10.40 590.65,-12.15 591.00,-14.60"/>
    </edge>
    <edge id=":J9_10" function="internal">
        <lane id=":J9_10_0" index="0" allow="private passenger taxi bus coach" speed="20.00" length="29.20" shape="585.40,-5.80 614.60,-5.80"/>
    </edge>
    <edge id=":J9_11" function="internal">
        <lane id=":J9_11_0" index="0" allow="private passenger taxi bus coach" speed="11.00" length="27.74" shape="585.40,-2.60 592.93,-1.53 598.30,1.70 601.53,7.07 602.60,14.60"/>
    </edge>

    <edge id="-E1" from="J3" to="J2" priority="-1" type="highway.trunk">
        <lane id="-E1_0" index="0" allow="private passenger taxi bus coach" speed="20.00" length="170.80" shape="585.40,409.00 414.60,409.00"/>
        <lane id="-E1_1" index="1" allow="private passenger taxi bus coach" speed="20.00" length="170.80" shape="585.40,405.80 414.60,405.80"/>
        <lane id="-E1_2" index="2" allow="private passenger taxi bus coach" speed="20.00" length="170.80" shape="585.40,402.60 414.60,402.60"/>
        <lane id="-E1_3" index="3" disallow="all" speed="20.00" length="170.80" width="1.00" shape="585.40,400.50 414.60,400.50"/>
    </edge>
    <edge id="-E10" from="J6" to="J3" priority="-1" type="highway.trunk">
        <lane id="-E10_0" index="0" allow="private passenger taxi bus coach" speed="20.00" length="170.80" shape="609.00,214.60 609.00,385.40"/>
        <lane id="-E10_1" index="1" allow="private passenger taxi bus coach" speed="20.00" length="170.80" shape="605.80,214.60 605.80,385.40"/>
        <lane id="-E10_2" index="2" allow="private passenger taxi bus coach" speed="20.00" length="170.80" shape="602.60,214.60 602.60,385.40"/>
        <lane id="-E10_3" index="3" disallow="all" speed="20.00" length="170.80" width="1.00" shape="600.50,214.60 600.50,385.40"/>
    </edge>
    <edge id="-E11" from="J11" to="J4" priority="-1" type="highway.trunk">
        <lane id="-E11_0" index="0" allow="private passenger taxi bus coach" speed="20.00" length="185.40" shape="0.00,191.00 185.40,191.00"/>
        <lane id="-E11_1" index="1" allow="private passenger taxi bus coach" speed="20.00" length="185.40" shape="0.00,194.20 185.40,194.20"/>
        <lane id="-E11_2" index="2" allow="private passenger taxi bus coach" speed="20.00" length="185.40" shape="0.00,197.40 185.40,197.40"/>
        <lane id="-E11_3" index="3" disallow="all" speed="20.00" length="185.40" width="1.00" shape="0.00,199.50 185.40,199.50"/>
    </edge>
    <edge id="-E12" from="J5" to="J4" priority="-1" type="highway.trunk">
        <lane id="-E12_0" index="0" allow="private passenger taxi bus coach" speed="20.00" length="170.80" shape="385.40,209.00 214.60,209.00"/>
        <lane id="-E12_1" index="1" allow="private passenger taxi bus coach" speed="20.00" length="170.80" shape="385.40,205.80 214.60,205.80"/>
        <lane id="-E12_2" index="2" allow="private passenger taxi bus coach" speed="20.00" length="170.80" shape="385.40,202.60 214.60,202.60"/>
        <lane id="-E12_3" index="3" disallow="all" speed="20.00" length="170.80" width="1.00" shape="385.40,200.50 214.60,200.50"/>
    </edge>
    <edge id="-E13" from="J6" to="J5" priority="-1" type="highway.trunk">
        <lane id="-E13_0" index="0" allow="private passenger taxi bus coach" speed="20.00" length="170.80" shape="585.40,209.00 414.60,209.00"/>
        <lane id="-E13_1" index="1" allow="private passenger taxi bus coach" speed="20.00" length="170.80" shape="585.40,205.80 414.60,205.80"/>
        <lane id="-E13_2" index="2" allow="private passenger taxi bus coach" speed="20.00" length="170.80" shape="585.40,202.60 414.60,202.60"/>
        <lane id="-E13_3" index="3" disallow="all" speed="20.00" length="170.80" width="1.00" shape="585.40,200.50 414.60,200.50"/>
    </edge>
    <edge id="-E14" from="J17" to="J6" priority="-1" type="highway.trunk">
        <lane id="-E14_0" index="0" allow="private passenger taxi bus coach" speed="20.00" length="185.40" shape="800.00,209.00 614.60,209.00"/>
        <lane id="-E14_1" index="1" allow="private passenger taxi bus coach" speed="20.00" length="185.40" shape="800.00,205.80 614.60,205.80"/>
        <lane id="-E14_2" index="2" allow="private passenger taxi bus coach" speed="20.00" length="185.40" shape="800.00,202.60 614.60,202.60"/>
        <lane id="-E14_3" index="3" disallow="all" speed="20.00" length="185.40" width="1.00" shape="800.00,200.50 614.60,200.50"/>
    </edge>
    <edge id="-E15" from="J7" to="J4" priority="-1" type="highway.trunk">